<additional><laneData id="ingolstadt7" file="lane-data.xml" freq="300" writeAttributes ="laneDensity entered departed left arrived " /> </additional>