<?xml version="1.0" encoding="UTF-8"?>

<!-- generated on 2022-05-17 22:28:57 by Eclipse SUMO netedit Version 1.11.0
<configuration xmlns:xsi="http://www.w3.org/2001/XMLSchema-instance" xsi:noNamespaceSchemaLocation="http://sumo.dlr.de/xsd/netconvertConfiguration.xsd">

    <input>
        <sumo-net-file value="jkt-new.net.xml"/>
    </input>

    <output>
        <output-file value="jkt-new.net.xml"/>
    </output>

    <processing>
        <geometry.min-radius.fix.railways value="false"/>
        <geometry.max-grade.fix value="false"/>
        <offset.disable-normalization value="true"/>
        <lefthand value="false"/>
    </processing>

    <junctions>
        <no-turnarounds value="true"/>
        <junctions.corner-detail value="5"/>
        <junctions.limit-turn-speed value="5.5"/>
        <rectangular-lane-cut value="false"/>
    </junctions>

    <pedestrian>
        <walkingareas value="false"/>
    </pedestrian>

    <report>
        <aggregate-warnings value="5"/>
    </report>

</configuration>
-->

<net version="1.9" junctionCornerDetail="5" limitTurnSpeed="5.50" xmlns:xsi="http://www.w3.org/2001/XMLSchema-instance" xsi:noNamespaceSchemaLocation="http://sumo.dlr.de/xsd/net_file.xsd">

    <location netOffset="790.94,2220.61" convBoundary="0.00,0.00,3896.84,3014.20" origBoundary="-790.94,-2220.61,3105.90,449.30" projParameter="!"/>

    <edge id=":1_0" function="internal">
        <lane id=":1_0_0" index="0" speed="13.89" length="7.00" width="3.50" shape="825.32,2219.22 827.26,2219.42 828.60,2219.65 829.93,2219.74 831.84,2219.49"/>
        <lane id=":1_0_1" index="1" speed="13.89" length="7.00" width="3.50" shape="825.14,2222.72 827.34,2222.93 828.86,2223.16 830.36,2223.22 832.52,2222.92"/>
    </edge>
    <edge id=":11_0" function="internal">
        <lane id=":11_0_0" index="0" speed="13.89" length="6.60" width="2.75" shape="751.13,1424.62 750.87,1426.57 750.28,1427.85 749.70,1429.14 749.45,1431.09"/>
        <lane id=":11_0_1" index="1" speed="13.89" length="6.60" width="2.75" shape="747.63,1424.63 747.49,1426.56 747.16,1427.87 746.84,1429.18 746.70,1431.12"/>
        <lane id=":11_0_2" index="2" speed="13.89" length="6.60" width="2.75" shape="744.13,1424.64 743.96,1431.14"/>
        <lane id=":11_0_3" index="3" speed="13.89" length="6.60" width="2.75" shape="740.63,1424.65 741.21,1431.17"/>
    </edge>
    <edge id=":157-end_0" function="internal">
        <lane id=":157-end_0_0" index="0" speed="13.89" length="40.44" shape="2932.41,2359.56 2929.23,2370.31 2926.41,2380.74 2924.06,2390.32 2922.28,2398.53"/>
        <lane id=":157-end_0_1" index="1" speed="13.89" length="40.44" shape="2932.41,2359.56 2928.74,2370.22 2924.84,2380.43 2921.41,2389.79 2919.14,2397.90"/>
    </edge>
    <edge id=":157-end_2" function="internal">
        <lane id=":157-end_2_0" index="0" speed="13.89" length="40.33" width="3.50" shape="2932.41,2359.56 2928.75,2369.48 2924.53,2378.35 2919.90,2387.05 2915.01,2396.48"/>
        <lane id=":157-end_2_1" index="1" speed="13.89" length="40.33" width="3.50" shape="2929.07,2358.52 2925.44,2368.36 2921.29,2377.06 2916.73,2385.58 2911.87,2394.93"/>
        <lane id=":157-end_2_2" index="2" speed="13.89" length="40.33" width="3.50" shape="2925.73,2357.49 2922.13,2367.25 2918.05,2375.76 2913.56,2384.11 2908.73,2393.38"/>
    </edge>
    <edge id=":158-begin_0" function="internal">
        <lane id=":158-begin_0_0" index="0" speed="13.89" length="19.38" width="3.50" shape="2962.94,2309.81 2966.37,2305.28 2968.51,2302.04 2970.48,2298.66 2973.36,2293.75"/>
        <lane id=":158-begin_0_1" index="1" speed="13.89" length="19.38" width="3.50" shape="2965.45,2311.79 2969.00,2307.19 2971.28,2303.93 2973.38,2300.55 2976.36,2295.55"/>
    </edge>
    <edge id=":158-begin_2" function="internal">
        <lane id=":158-begin_2_0" index="0" speed="13.89" length="15.95" width="3.50" shape="2971.97,2311.32 2972.74,2306.46 2973.18,2303.06 2974.12,2299.85 2976.36,2295.55"/>
        <lane id=":158-begin_2_1" index="1" speed="13.89" length="15.95" width="3.50" shape="2975.10,2311.95 2975.85,2307.44 2976.32,2304.30 2977.25,2301.34 2979.36,2297.36"/>
    </edge>
    <edge id=":18_0" function="internal">
        <lane id=":18_0_0" index="0" allow="private emergency authority vip pedestrian passenger hov taxi delivery motorcycle moped bicycle evehicle custom1 custom2" speed="11.46" length="57.29" width="2.75" shape="2512.74,686.73 2495.18,700.59 2489.40,709.03 2495.42,712.05 2513.22,709.64"/>
    </edge>
    <edge id=":18_1" function="internal">
        <lane id=":18_1_0" index="0" speed="13.89" length="32.07" width="2.75" shape="2512.74,686.73 2505.77,690.28 2497.65,692.58 2489.21,694.05 2481.26,695.13"/>
        <lane id=":18_1_1" index="1" speed="13.89" length="32.07" width="2.75" shape="2511.00,684.28 2504.28,687.78 2496.69,689.98 2488.78,691.35 2481.07,692.38"/>
    </edge>
    <edge id=":18_3" function="internal">
        <lane id=":18_3_0" index="0" allow="private emergency authority vip pedestrian passenger hov taxi delivery motorcycle moped bicycle evehicle custom1 custom2" speed="13.89" length="28.84" width="2.75" shape="2484.72,713.41 2513.22,709.64"/>
        <lane id=":18_3_1" index="1" allow="private emergency authority vip pedestrian passenger hov taxi delivery motorcycle moped bicycle evehicle custom1 custom2" speed="13.89" length="28.84" width="2.75" shape="2485.11,716.13 2513.80,712.32"/>
    </edge>
    <edge id=":20_0" function="internal">
        <lane id=":20_0_0" index="0" speed="13.89" length="14.68" width="2.75" shape="812.76,886.39 810.48,883.15 808.92,880.89 807.13,878.87 804.15,876.30"/>
        <lane id=":20_0_1" index="1" speed="13.89" length="14.68" width="2.75" shape="814.97,884.76 812.53,881.30 810.85,878.92 808.92,876.77 805.73,874.04"/>
        <lane id=":20_0_2" index="2" speed="13.89" length="14.68" width="2.75" shape="817.18,883.12 814.58,879.46 812.78,876.94 810.71,874.68 807.31,871.78"/>
        <lane id=":20_0_3" index="3" speed="13.89" length="14.68" width="2.75" shape="819.39,881.49 816.63,877.62 814.71,874.97 812.50,872.59 808.89,869.53"/>
    </edge>
    <edge id=":20_4" function="internal">
        <lane id=":20_4_0" index="0" speed="10.29" length="14.92" width="2.75" shape="821.04,875.57 817.97,876.25 814.66,875.85 811.11,874.36 807.31,871.78"/>
        <lane id=":20_4_1" index="1" speed="9.33" length="12.15" width="2.75" shape="819.99,873.03 817.64,873.50 815.01,873.07 812.10,871.74 808.89,869.53"/>
    </edge>
    <edge id=":22_0" function="internal">
        <lane id=":22_0_0" index="0" speed="7.25" length="8.17" width="3.50" shape="962.83,737.93 961.95,735.68 961.70,733.65 962.08,731.85 963.09,730.28"/>
    </edge>
    <edge id=":22_1" function="internal">
        <lane id=":22_1_0" index="0" speed="13.89" length="9.24" width="3.50" shape="954.30,734.78 960.50,727.93"/>
        <lane id=":22_1_1" index="1" speed="13.89" length="9.24" width="3.50" shape="956.89,737.13 963.09,730.28"/>
    </edge>
    <edge id=":3_0" function="internal">
        <lane id=":3_0_0" index="0" allow="private emergency authority vip pedestrian passenger hov taxi delivery truck trailer motorcycle moped bicycle evehicle custom1 custom2" speed="13.89" length="4.19" width="3.50" shape="831.18,2214.23 830.05,2213.99 829.26,2213.93 828.46,2213.93 827.30,2213.87"/>
        <lane id=":3_0_1" index="1" allow="private emergency authority vip pedestrian passenger hov taxi delivery truck trailer motorcycle moped bicycle evehicle custom1 custom2" speed="13.89" length="4.19" width="3.50" shape="832.04,2210.83 830.75,2210.56 829.84,2210.48 828.93,2210.46 827.60,2210.39"/>
    </edge>
    <edge id=":38_0" function="internal">
        <lane id=":38_0_0" index="0" speed="13.89" length="16.27" width="2.75" shape="820.89,906.04 819.76,901.35 818.87,898.15 817.61,895.09 815.37,890.83"/>
        <lane id=":38_0_1" index="1" speed="13.89" length="16.27" width="2.75" shape="823.47,905.03 822.34,900.34 821.45,897.14 820.19,894.08 817.95,889.82"/>
        <lane id=":38_0_2" index="2" speed="13.89" length="16.27" width="2.75" shape="826.05,904.02 824.92,899.33 824.03,896.12 822.77,893.07 820.53,888.81"/>
    </edge>
    <edge id=":38_3" function="internal">
        <lane id=":38_3_0" index="0" speed="13.89" length="24.13" width="2.75" shape="826.05,904.02 825.55,898.91 826.48,893.46 828.84,887.67 832.65,881.56"/>
    </edge>
    <edge id=":38_4" function="internal">
        <lane id=":38_4_0" index="0" speed="13.89" length="16.28" width="2.75" shape="828.64,903.01 827.50,898.32 826.61,895.11 825.36,892.05 823.11,887.79"/>
    </edge>
    <edge id=":38_5" function="internal">
        <lane id=":38_5_0" index="0" speed="13.89" length="21.28" width="3.50" shape="828.64,903.01 828.32,898.85 829.30,894.19 831.59,889.03 835.19,883.38"/>
        <lane id=":38_5_1" index="1" speed="13.68" length="20.17" width="3.50" shape="828.64,903.01 828.91,900.65 830.57,896.93 833.60,891.85 838.03,885.43"/>
    </edge>
    <edge id=":4_0" function="internal">
        <lane id=":4_0_0" index="0" allow="private emergency authority vip pedestrian passenger hov taxi delivery motorcycle moped bicycle evehicle custom1 custom2" speed="5.85" length="8.65" width="2.00" shape="1507.32,2256.87 1509.68,2256.67 1511.15,2255.67 1511.74,2253.87 1511.44,2251.28"/>
        <lane id=":4_0_1" index="1" allow="private emergency authority vip pedestrian passenger hov taxi delivery motorcycle moped bicycle evehicle custom1 custom2" speed="6.41" length="10.67" width="2.00" shape="1507.32,2256.87 1510.58,2256.69 1512.68,2255.62 1513.62,2253.66 1513.39,2250.80"/>
    </edge>
    <edge id=":4_2" function="internal">
        <lane id=":4_2_0" index="0" speed="13.89" length="12.20" width="3.50" shape="1507.32,2256.87 1519.49,2257.71"/>
        <lane id=":4_2_1" index="1" speed="13.89" length="12.20" width="3.50" shape="1507.08,2260.37 1519.25,2261.20"/>
        <lane id=":4_2_2" index="2" speed="13.89" length="12.20" width="3.50" shape="1506.84,2263.86 1519.01,2264.69"/>
    </edge>
    <edge id=":40_0" function="internal">
        <lane id=":40_0_0" index="0" allow="private emergency authority vip pedestrian passenger hov taxi delivery motorcycle moped bicycle evehicle custom1 custom2" speed="6.62" length="8.06" width="2.75" shape="2378.99,1524.71 2381.40,1524.91 2383.35,1524.52 2384.84,1523.55 2385.87,1521.98"/>
        <lane id=":40_0_1" index="1" allow="private emergency authority vip pedestrian passenger hov taxi delivery motorcycle moped bicycle evehicle custom1 custom2" speed="7.82" length="11.48" width="2.75" shape="2378.58,1526.92 2382.02,1527.21 2384.81,1526.66 2386.93,1525.28 2388.39,1523.07"/>
    </edge>
    <edge id=":40_2" function="internal">
        <lane id=":40_2_0" index="0" speed="13.89" length="11.01" width="2.75" shape="2381.51,1532.10 2385.87,1521.98"/>
        <lane id=":40_2_1" index="1" speed="13.89" length="11.01" width="2.75" shape="2384.04,1533.19 2388.39,1523.07"/>
    </edge>
    <edge id=":41_0" function="internal">
        <lane id=":41_0_0" index="0" allow="private emergency authority vip pedestrian passenger hov taxi delivery truck motorcycle moped bicycle evehicle custom1 custom2" speed="12.40" length="34.14" width="2.75" shape="2586.18,1065.66 2574.80,1059.82 2567.25,1054.16 2563.54,1048.68 2563.65,1043.39"/>
    </edge>
    <edge id=":41_1" function="internal">
        <lane id=":41_1_0" index="0" speed="13.89" length="25.60" width="2.75" shape="2552.30,1066.51 2561.09,1042.39"/>
        <lane id=":41_1_1" index="1" speed="13.89" length="25.60" width="2.75" shape="2554.92,1067.37 2563.65,1043.39"/>
    </edge>
    <edge id=":41_3" function="internal">
        <lane id=":41_3_0" index="0" allow="private emergency authority vip pedestrian passenger hov taxi delivery truck motorcycle moped bicycle evehicle custom1 custom2" speed="11.46" length="33.21" width="3.50" shape="2554.92,1067.37 2558.71,1062.80 2565.31,1062.09 2574.17,1064.39 2584.75,1068.87"/>
    </edge>
    <edge id=":42_0" function="internal">
        <lane id=":42_0_0" index="0" speed="9.34" length="15.77" width="3.50" shape="2674.26,739.08 2674.37,736.62 2672.95,733.77 2670.02,730.52 2665.57,726.87"/>
    </edge>
    <edge id=":42_1" function="internal">
        <lane id=":42_1_0" index="0" speed="13.89" length="14.92" width="3.00" shape="2674.26,739.08 2675.48,734.83 2675.74,731.76 2675.97,728.67 2677.12,724.40"/>
        <lane id=":42_1_1" index="1" speed="13.89" length="14.92" width="3.00" shape="2674.26,739.08 2679.94,725.43"/>
        <lane id=":42_1_2" index="2" speed="13.89" length="14.92" width="3.00" shape="2676.82,740.06 2678.08,735.82 2678.43,732.76 2678.75,729.70 2679.94,725.43"/>
        <lane id=":42_1_3" index="3" speed="13.89" length="14.92" width="3.00" shape="2676.82,740.06 2682.76,726.46"/>
    </edge>
    <edge id=":43_0" function="internal">
        <lane id=":43_0_0" index="0" speed="13.89" length="50.63" width="3.00" shape="2627.41,703.34 2581.94,681.23"/>
        <lane id=":43_0_1" index="1" speed="13.89" length="50.63" width="3.00" shape="2629.09,700.27 2583.28,678.55"/>
    </edge>
    <edge id=":43_2" function="internal">
        <lane id=":43_2_0" index="0" allow="private emergency authority vip pedestrian passenger hov taxi delivery truck trailer motorcycle moped bicycle evehicle custom1 custom2" speed="13.89" length="49.86" width="3.00" shape="2645.36,671.98 2633.42,682.46 2619.09,687.05 2602.38,685.75 2600.36,684.99"/>
        <lane id=":43_2_1" index="1" allow="private emergency authority vip pedestrian passenger hov taxi delivery truck trailer motorcycle moped bicycle evehicle custom1 custom2" speed="13.89" length="63.99" width="3.00" shape="2643.02,670.10 2631.87,679.83 2618.43,684.03 2602.67,682.71 2584.62,675.87"/>
    </edge>
    <edge id=":43_4" function="internal">
        <lane id=":43_4_0" index="0" allow="private emergency authority vip pedestrian passenger hov taxi delivery truck trailer motorcycle moped bicycle evehicle custom1 custom2" speed="13.89" length="18.25" width="3.00" shape="2600.36,684.99 2583.28,678.55"/>
    </edge>
    <edge id=":48_0" function="internal">
        <lane id=":48_0_0" index="0" speed="13.89" length="28.06" width="3.50" shape="2213.28,1273.61 2214.59,1282.54 2214.74,1289.32 2214.29,1295.36 2213.83,1302.06"/>
        <lane id=":48_0_1" index="1" speed="13.89" length="28.06" width="3.50" shape="2210.58,1274.15 2212.30,1282.92 2213.38,1289.52 2213.87,1295.42 2213.83,1302.06"/>
        <lane id=":48_0_2" index="2" speed="13.89" length="28.06" width="3.50" shape="2207.88,1274.69 2209.44,1283.19 2210.25,1289.59 2210.48,1295.34 2210.33,1301.92"/>
    </edge>
    <edge id=":49_0" function="internal">
        <lane id=":49_0_0" index="0" allow="private emergency authority vip pedestrian passenger hov taxi delivery motorcycle moped bicycle evehicle custom1 custom2" speed="6.40" length="8.77" width="2.25" shape="2208.92,1503.82 2209.23,1506.08 2210.28,1507.69 2212.07,1508.65 2214.59,1508.96"/>
        <lane id=":49_0_1" index="1" allow="private emergency authority vip pedestrian passenger hov taxi delivery motorcycle moped bicycle evehicle custom1 custom2" speed="6.98" length="10.65" width="2.25" shape="2208.92,1503.82 2209.21,1507.06 2210.26,1509.38 2212.05,1510.76 2214.60,1511.21"/>
    </edge>
    <edge id=":49_2" function="internal">
        <lane id=":49_2_0" index="0" speed="13.89" length="12.50" width="3.50" shape="2208.92,1503.82 2208.66,1516.32"/>
        <lane id=":49_2_1" index="1" speed="13.89" length="12.50" width="3.50" shape="2205.42,1503.75 2205.16,1516.25"/>
    </edge>
    <edge id=":5_0" function="internal">
        <lane id=":5_0_0" index="0" speed="13.89" length="22.28" width="3.50" shape="1717.42,2270.44 1724.17,2270.46 1728.94,2269.88 1733.50,2269.27 1739.63,2269.16"/>
    </edge>
    <edge id=":5_1" function="internal">
        <lane id=":5_1_0" index="0" speed="13.89" length="23.79" width="3.00" shape="1717.42,2270.44 1724.11,2271.99 1728.30,2274.77 1732.50,2277.54 1739.19,2279.06"/>
    </edge>
    <edge id=":5_2" function="internal">
        <lane id=":5_2_0" index="0" speed="13.89" length="22.34" width="3.50" shape="1717.21,2273.93 1723.98,2273.95 1728.77,2273.38 1733.34,2272.76 1739.47,2272.66"/>
    </edge>
    <edge id=":5_3" function="internal">
        <lane id=":5_3_0" index="0" speed="13.89" length="23.57" width="3.00" shape="1717.21,2273.93 1723.90,2275.40 1728.13,2278.02 1732.37,2280.62 1739.06,2282.06"/>
        <lane id=":5_3_1" index="1" speed="13.89" length="23.57" width="3.00" shape="1717.00,2277.42 1723.68,2278.82 1727.96,2281.26 1732.24,2283.70 1738.92,2285.06"/>
    </edge>
    <edge id=":50_0" function="internal">
        <lane id=":50_0_0" index="0" allow="private emergency authority vip pedestrian passenger hov taxi delivery motorcycle moped bicycle evehicle custom1 custom2" speed="6.32" length="8.67" width="2.75" shape="2283.02,899.81 2280.65,899.66 2278.80,900.31 2277.49,901.76 2276.70,904.01"/>
        <lane id=":50_0_1" index="1" allow="private emergency authority vip pedestrian passenger hov taxi delivery motorcycle moped bicycle evehicle custom1 custom2" speed="7.65" length="13.13" width="2.75" shape="2283.58,897.12 2279.98,896.90 2277.19,897.88 2275.20,900.07 2274.00,903.47"/>
    </edge>
    <edge id=":50_2" function="internal">
        <lane id=":50_2_0" index="0" speed="13.89" length="13.49" width="2.75" shape="2279.07,890.72 2276.70,904.01"/>
        <lane id=":50_2_1" index="1" speed="13.89" length="13.49" width="2.75" shape="2276.37,890.19 2274.00,903.47"/>
        <lane id=":50_2_2" index="2" speed="13.89" length="13.49" width="2.75" shape="2273.66,889.66 2271.31,902.94"/>
    </edge>
    <edge id=":52_0" function="internal">
        <lane id=":52_0_0" index="0" allow="private emergency authority vip pedestrian passenger hov taxi delivery motorcycle moped bicycle evehicle custom1 custom2" speed="8.74" length="14.40" width="3.50" shape="1403.58,1799.61 1402.10,1795.15 1400.16,1791.98 1397.76,1790.09 1394.89,1789.47"/>
        <lane id=":52_0_1" index="1" allow="private emergency authority vip pedestrian passenger hov taxi delivery motorcycle moped bicycle evehicle custom1 custom2" speed="9.79" length="18.21" width="3.50" shape="1405.52,1799.13 1403.64,1793.35 1401.24,1789.23 1398.32,1786.77 1394.87,1785.97"/>
    </edge>
    <edge id=":52_2" function="internal">
        <lane id=":52_2_0" index="0" allow="private emergency authority vip pedestrian passenger hov taxi delivery motorcycle moped bicycle evehicle custom1 custom2" speed="6.56" length="11.85" width="2.25" shape="1405.52,1799.13 1405.01,1795.30 1405.63,1792.62 1407.39,1791.11 1410.28,1790.76"/>
    </edge>
    <edge id=":52_3" function="internal">
        <lane id=":52_3_0" index="0" speed="13.89" length="15.22" width="3.50" shape="1410.07,1784.41 1394.87,1785.97"/>
        <lane id=":52_3_1" index="1" speed="13.89" length="15.22" width="3.50" shape="1409.97,1781.67 1394.84,1782.47"/>
    </edge>
    <edge id=":54_0" function="internal">
        <lane id=":54_0_0" index="0" allow="private emergency authority vip pedestrian passenger hov taxi delivery motorcycle moped bicycle evehicle custom1 custom2" speed="10.51" length="37.53" width="2.00" shape="1825.83,2018.61 1813.42,2008.26 1804.33,2002.80 1798.57,2002.24 1796.13,2006.58"/>
    </edge>
    <edge id=":54_1" function="internal">
        <lane id=":54_1_0" index="0" allow="private emergency authority vip pedestrian passenger hov taxi delivery motorcycle moped bicycle evehicle custom1 custom2" speed="13.89" length="44.76" width="2.75" shape="1825.83,2018.61 1792.98,1988.20"/>
    </edge>
    <edge id=":54_2" function="internal">
        <lane id=":54_2_0" index="0" allow="private emergency authority vip pedestrian passenger hov taxi delivery motorcycle moped bicycle evehicle custom1 custom2" speed="13.89" length="42.98" width="2.25" shape="1825.83,2018.61 1814.44,2007.52 1806.54,1998.14 1802.15,1990.49 1801.25,1984.56"/>
    </edge>
    <edge id=":54_3" function="internal">
        <lane id=":54_3_0" index="0" allow="private emergency authority vip pedestrian passenger hov taxi delivery motorcycle moped bicycle evehicle custom1 custom2" speed="6.99" length="15.42" width="2.25" shape="1790.07,1991.39 1793.15,1993.24 1795.67,1992.66 1797.63,1989.64 1799.03,1984.18"/>
    </edge>
    <edge id=":54_4" function="internal">
        <lane id=":54_4_0" index="0" allow="private emergency authority vip pedestrian passenger hov taxi delivery motorcycle moped bicycle evehicle custom1 custom2" speed="13.89" length="44.77" width="2.75" shape="1790.07,1991.39 1823.22,2021.48"/>
    </edge>
    <edge id=":54_5" function="internal">
        <lane id=":54_5_0" index="0" allow="private emergency authority vip pedestrian passenger hov taxi delivery motorcycle moped bicycle evehicle custom1 custom2" speed="11.86" length="14.96" width="2.00" shape="1790.07,1991.39 1793.09,1994.76 1795.11,1998.41 1796.13,2002.36 1796.13,2004.55"/>
    </edge>
    <edge id=":54_9" function="internal">
        <lane id=":54_9_0" index="0" allow="private emergency authority vip pedestrian passenger hov taxi delivery motorcycle moped bicycle evehicle custom1 custom2" speed="11.86" length="2.04" width="2.00" shape="1796.13,2004.55 1796.13,2006.58"/>
    </edge>
    <edge id=":54_6" function="internal">
        <lane id=":54_6_0" index="0" allow="private emergency authority vip pedestrian passenger hov taxi delivery motorcycle moped bicycle evehicle custom1 custom2" speed="12.57" length="20.15" width="2.75" shape="1798.29,2006.83 1798.51,2000.86 1797.70,1995.76 1795.85,1991.54 1792.98,1988.20"/>
    </edge>
    <edge id=":54_7" function="internal">
        <lane id=":54_7_0" index="0" allow="private emergency authority vip pedestrian passenger hov taxi delivery truck motorcycle moped bicycle evehicle custom1 custom2" speed="13.89" length="22.47" width="2.25" shape="1798.29,2006.83 1801.25,1984.56"/>
    </edge>
    <edge id=":54_8" function="internal">
        <lane id=":54_8_0" index="0" allow="private emergency authority vip pedestrian passenger hov taxi delivery truck motorcycle moped bicycle evehicle custom1 custom2" speed="9.54" length="30.90" width="2.75" shape="1798.29,2006.83 1800.79,2005.15 1806.52,2007.94 1814.37,2013.84 1823.22,2021.48"/>
    </edge>
    <edge id=":58_0" function="internal">
        <lane id=":58_0_0" index="0" speed="11.09" length="21.50" width="3.50" shape="1874.14,1713.79 1877.43,1717.97 1878.97,1722.66 1878.77,1727.86 1876.83,1733.58"/>
        <lane id=":58_0_1" index="1" speed="10.07" length="17.58" width="3.50" shape="1872.26,1715.79 1874.70,1719.03 1875.75,1722.83 1875.40,1727.19 1873.67,1732.10"/>
    </edge>
    <edge id=":59_0" function="internal">
        <lane id=":59_0_0" index="0" allow="private emergency authority vip pedestrian passenger hov taxi delivery motorcycle moped bicycle evehicle custom1 custom2" speed="7.06" length="10.38" width="2.75" shape="1855.01,1780.85 1853.97,1783.84 1853.92,1786.34 1854.86,1788.36 1856.81,1789.90"/>
    </edge>
    <edge id=":59_1" function="internal">
        <lane id=":59_1_0" index="0" allow="private emergency authority vip pedestrian passenger hov taxi delivery truck motorcycle moped bicycle evehicle custom1 custom2" speed="7.11" length="6.40" width="3.50" shape="1851.86,1779.34 1850.30,1781.33 1848.12,1782.13 1846.58,1781.91"/>
    </edge>
    <edge id=":59_5" function="internal">
        <lane id=":59_5_0" index="0" allow="private emergency authority vip pedestrian passenger hov taxi delivery truck motorcycle moped bicycle evehicle custom1 custom2" speed="7.11" length="5.10" width="3.50" shape="1846.58,1781.91 1845.29,1781.73 1841.83,1780.15"/>
    </edge>
    <edge id=":59_2" function="internal">
        <lane id=":59_2_0" index="0" allow="private emergency authority vip pedestrian passenger hov taxi delivery motorcycle moped bicycle evehicle custom1 custom2" speed="13.89" length="17.75" width="2.75" shape="1840.21,1783.35 1855.52,1792.33"/>
    </edge>
    <edge id=":59_3" function="internal">
        <lane id=":59_3_0" index="0" allow="private emergency authority vip pedestrian passenger hov taxi delivery truck motorcycle moped bicycle evehicle custom1 custom2" speed="9.07" length="16.46" width="3.50" shape="1846.03,1794.49 1847.14,1789.91 1846.81,1786.00 1845.04,1782.74 1841.83,1780.15"/>
    </edge>
    <edge id=":59_4" function="internal">
        <lane id=":59_4_0" index="0" allow="private emergency authority vip pedestrian passenger hov taxi delivery motorcycle moped bicycle evehicle custom1 custom2" speed="6.23" length="9.36" width="2.75" shape="1848.13,1795.27 1849.40,1792.94 1851.05,1791.67 1853.09,1791.47 1855.52,1792.33"/>
    </edge>
    <edge id=":60_0" function="internal">
        <lane id=":60_0_0" index="0" allow="private emergency authority vip pedestrian passenger hov taxi delivery motorcycle moped bicycle evehicle custom1 custom2" speed="13.89" length="18.94" width="2.75" shape="1893.34,1718.45 1907.59,1730.59"/>
        <lane id=":60_0_1" index="1" allow="private emergency authority vip pedestrian passenger hov taxi delivery motorcycle moped bicycle evehicle custom1 custom2" speed="13.89" length="18.94" width="2.75" shape="1891.04,1721.09 1896.11,1724.78 1900.53,1727.04 1904.35,1728.69 1907.59,1730.59"/>
    </edge>
    <edge id=":61_0" function="internal">
        <lane id=":61_0_0" index="0" allow="private emergency authority vip pedestrian passenger hov taxi delivery motorcycle moped bicycle evehicle custom1 custom2" speed="13.89" length="27.94" width="3.50" shape="2067.21,1815.17 2071.65,1816.05 2077.71,1816.87 2085.46,1817.38 2094.99,1817.33"/>
    </edge>
    <edge id=":61_1" function="internal">
        <lane id=":61_1_0" index="0" allow="private emergency authority vip pedestrian passenger hov taxi delivery motorcycle moped bicycle evehicle custom1 custom2" speed="13.89" length="27.19" width="3.50" shape="2067.91,1821.88 2095.13,1820.83"/>
        <lane id=":61_1_1" index="1" allow="private emergency authority vip pedestrian passenger hov taxi delivery motorcycle moped bicycle evehicle custom1 custom2" speed="13.89" length="27.19" width="3.50" shape="2068.13,1824.62 2095.27,1824.33"/>
    </edge>
    <edge id=":65_0" function="internal">
        <lane id=":65_0_0" index="0" speed="8.47" length="13.60" width="3.00" shape="1848.06,536.13 1848.11,532.68 1849.29,529.83 1851.61,527.57 1855.05,525.91"/>
        <lane id=":65_0_1" index="1" speed="7.03" length="9.05" width="3.00" shape="1851.52,535.66 1851.54,533.30 1852.30,531.36 1853.79,529.84 1856.02,528.75"/>
    </edge>
    <edge id=":65_2" function="internal">
        <lane id=":65_2_0" index="0" allow="private emergency authority vip pedestrian passenger hov taxi delivery truck motorcycle moped bicycle evehicle custom1 custom2" speed="13.89" length="23.30" width="3.00" shape="1831.76,524.68 1838.46,525.34 1843.13,525.58 1847.69,524.98 1854.08,523.07"/>
        <lane id=":65_2_1" index="1" allow="private emergency authority vip pedestrian passenger hov taxi delivery truck motorcycle moped bicycle evehicle custom1 custom2" speed="13.89" length="23.30" width="3.00" shape="1831.50,527.67 1838.57,528.35 1843.50,528.59 1848.31,527.93 1855.05,525.91"/>
    </edge>
    <edge id=":65_4" function="internal">
        <lane id=":65_4_0" index="0" allow="private emergency authority vip pedestrian passenger hov taxi delivery truck motorcycle moped bicycle evehicle custom1 custom2" speed="8.70" length="14.62" width="3.50" shape="1831.50,527.67 1835.26,528.53 1838.07,530.39 1839.93,533.26 1840.85,537.12"/>
        <lane id=":65_4_1" index="1" allow="private emergency authority vip pedestrian passenger hov taxi delivery truck motorcycle moped bicycle evehicle custom1 custom2" speed="7.34" length="10.17" width="3.50" shape="1831.25,530.66 1833.69,531.27 1835.52,532.63 1836.75,534.74 1837.38,537.60"/>
    </edge>
    <edge id=":66_0" function="internal">
        <lane id=":66_0_0" index="0" speed="13.89" length="8.03" width="3.00" shape="1897.63,469.13 1897.92,466.99 1898.12,465.52 1898.15,464.04 1897.92,461.91"/>
        <lane id=":66_0_1" index="1" speed="13.89" length="8.03" width="3.00" shape="1900.61,469.47 1900.92,467.11 1901.13,465.47 1901.15,463.85 1900.89,461.49"/>
        <lane id=":66_0_2" index="2" speed="13.89" length="8.03" width="3.00" shape="1903.59,469.81 1903.93,467.22 1904.14,465.43 1904.15,463.65 1903.86,461.07"/>
    </edge>
    <edge id=":67_0" function="internal">
        <lane id=":67_0_0" index="0" allow="private emergency authority vip pedestrian passenger hov taxi delivery truck motorcycle moped bicycle evehicle custom1 custom2" speed="13.89" length="8.53" width="3.00" shape="1775.41,478.55 1776.92,486.81"/>
        <lane id=":67_0_1" index="1" allow="private emergency authority vip pedestrian passenger hov taxi delivery truck motorcycle moped bicycle evehicle custom1 custom2" speed="13.89" length="8.53" width="3.00" shape="1772.45,479.05 1773.99,487.44"/>
        <lane id=":67_0_2" index="2" allow="private emergency authority vip pedestrian passenger hov taxi delivery truck motorcycle moped bicycle evehicle custom1 custom2" speed="13.89" length="8.53" width="3.00" shape="1769.49,479.55 1771.06,488.07"/>
    </edge>
    <edge id=":7_0" function="internal">
        <lane id=":7_0_0" index="0" allow="private emergency authority vip pedestrian passenger hov taxi delivery truck motorcycle moped bicycle evehicle custom1 custom2" speed="9.46" length="21.48" width="3.00" shape="1765.27,2264.63 1766.16,2267.31 1769.57,2269.42 1775.51,2270.96 1783.97,2271.93"/>
    </edge>
    <edge id=":7_1" function="internal">
        <lane id=":7_1_0" index="0" allow="private emergency authority vip pedestrian passenger hov taxi delivery truck motorcycle moped bicycle evehicle custom1 custom2" speed="7.16" length="10.37" width="2.00" shape="1759.71,2270.05 1762.83,2269.84 1765.16,2268.92 1766.69,2267.27 1767.43,2264.90"/>